[Format]      =  4.0
[Frequency]   =  0
[Precision]   =  1e-008
[MinAngle]    =  30
[DoSmartMesh] =  1
[Depth]       =  1
[LengthUnits] =  centimeters
[ProblemType] =  axisymmetric
[Coordinates] =  cartesian
[ACSolver]    =  0
[PrevType]    =  0
[PrevSoln]    =  ""
[Comment]     =  "Add comments here."
[PointProps]   = 0
[BdryProps]   = 2
  <BeginBdry>
    <BdryName> = "A=0"
    <BdryType> = 0
    <A_0> = 0
    <A_1> = 0
    <A_2> = 0
    <Phi> = 0
    <c0> = 0
    <c0i> = 0
    <c1> = 0
    <c1i> = 0
    <Mu_ssd> = 0
    <Sigma_ssd> = 0
    <innerangle> = 0
    <outerangle> = 0
  <EndBdry>
  <BeginBdry>
    <BdryName> = "A=0"
    <BdryType> = 0
    <A_0> = 0
    <A_1> = 0
    <A_2> = 0
    <Phi> = 0
    <c0> = 0
    <c0i> = 0
    <c1> = 0
    <c1i> = 0
    <Mu_ssd> = 0
    <Sigma_ssd> = 0
    <innerangle> = 0
    <outerangle> = 0
  <EndBdry>
[BlockProps]  = 18
  <BeginBlock>
    <BlockName> = "30 AWG"
    <Mu_x> = 1
    <Mu_y> = 1
    <H_c> = 0
    <H_cAngle> = 0
    <J_re> = 0
    <J_im> = 0
    <Sigma> = 58
    <d_lam> = 0
    <Phi_h> = 0
    <Phi_hx> = 0
    <Phi_hy> = 0
    <LamType> = 3
    <LamFill> = 1
    <NStrands> = 1
    <WireD> = 0.25472427515370799
    <BHPoints> = 0
  <EndBlock>
  <BeginBlock>
    <BlockName> = "Air"
    <Mu_x> = 1
    <Mu_y> = 1
    <H_c> = 0
    <H_cAngle> = 0
    <J_re> = 0
    <J_im> = 0
    <Sigma> = 0
    <d_lam> = 0
    <Phi_h> = 0
    <Phi_hx> = 0
    <Phi_hy> = 0
    <LamType> = 0
    <LamFill> = 1
    <NStrands> = 0
    <WireD> = 0
    <BHPoints> = 0
  <EndBlock>
  <BeginBlock>
    <BlockName> = "26 AWG"
    <Mu_x> = 1
    <Mu_y> = 1
    <H_c> = 0
    <H_cAngle> = 0
    <J_re> = 0
    <J_im> = 0
    <Sigma> = 58
    <d_lam> = 0
    <Phi_h> = 0
    <Phi_hx> = 0
    <Phi_hy> = 0
    <LamType> = 3
    <LamFill> = 1
    <NStrands> = 1
    <WireD> = 0.40501891210693097
    <BHPoints> = 0
  <EndBlock>
  <BeginBlock>
    <BlockName> = "u1"
    <Mu_x> = 2.4089242666740582
    <Mu_y> = 2.4089242666740582
    <H_c> = 0
    <H_cAngle> = 0
    <J_re> = 0
    <J_im> = 0
    <Sigma> = 0
    <d_lam> = 0
    <Phi_h> = 0
    <Phi_hx> = 0
    <Phi_hy> = 0
    <LamType> = 0
    <LamFill> = 1
    <NStrands> = 0
    <WireD> = 0
    <BHPoints> = 0
  <EndBlock>
  <BeginBlock>
    <BlockName> = "u2"
    <Mu_x> = 0.14929929105743517
    <Mu_y> = 0.14929929105743517
    <H_c> = 0
    <H_cAngle> = 0
    <J_re> = 0
    <J_im> = 0
    <Sigma> = 0
    <d_lam> = 0
    <Phi_h> = 0
    <Phi_hx> = 0
    <Phi_hy> = 0
    <LamType> = 0
    <LamFill> = 1
    <NStrands> = 0
    <WireD> = 0
    <BHPoints> = 0
  <EndBlock>
  <BeginBlock>
    <BlockName> = "u3"
    <Mu_x> = 13.817592213008757
    <Mu_y> = 13.817592213008757
    <H_c> = 0
    <H_cAngle> = 0
    <J_re> = 0
    <J_im> = 0
    <Sigma> = 0
    <d_lam> = 0
    <Phi_h> = 0
    <Phi_hx> = 0
    <Phi_hy> = 0
    <LamType> = 0
    <LamFill> = 1
    <NStrands> = 0
    <WireD> = 0
    <BHPoints> = 0
  <EndBlock>
  <BeginBlock>
    <BlockName> = "u4"
    <Mu_x> = 0.058217224585269539
    <Mu_y> = 0.058217224585269539
    <H_c> = 0
    <H_cAngle> = 0
    <J_re> = 0
    <J_im> = 0
    <Sigma> = 0
    <d_lam> = 0
    <Phi_h> = 0
    <Phi_hx> = 0
    <Phi_hy> = 0
    <LamType> = 0
    <LamFill> = 1
    <NStrands> = 0
    <WireD> = 0
    <BHPoints> = 0
  <EndBlock>
  <BeginBlock>
    <BlockName> = "u5"
    <Mu_x> = 45.655954531895645
    <Mu_y> = 45.655954531895645
    <H_c> = 0
    <H_cAngle> = 0
    <J_re> = 0
    <J_im> = 0
    <Sigma> = 0
    <d_lam> = 0
    <Phi_h> = 0
    <Phi_hx> = 0
    <Phi_hy> = 0
    <LamType> = 0
    <LamFill> = 1
    <NStrands> = 0
    <WireD> = 0
    <BHPoints> = 0
  <EndBlock>
  <BeginBlock>
    <BlockName> = "u6"
    <Mu_x> = 0.033867295231772787
    <Mu_y> = 0.033867295231772787
    <H_c> = 0
    <H_cAngle> = 0
    <J_re> = 0
    <J_im> = 0
    <Sigma> = 0
    <d_lam> = 0
    <Phi_h> = 0
    <Phi_hx> = 0
    <Phi_hy> = 0
    <LamType> = 0
    <LamFill> = 1
    <NStrands> = 0
    <WireD> = 0
    <BHPoints> = 0
  <EndBlock>
  <BeginBlock>
    <BlockName> = "u7"
    <Mu_x> = 429.04642800993452
    <Mu_y> = 429.04642800993452
    <H_c> = 0
    <H_cAngle> = 0
    <J_re> = 0
    <J_im> = 0
    <Sigma> = 0
    <d_lam> = 0
    <Phi_h> = 0
    <Phi_hx> = 0
    <Phi_hy> = 0
    <LamType> = 0
    <LamFill> = 1
    <NStrands> = 0
    <WireD> = 0
    <BHPoints> = 0
  <EndBlock>
  <BeginBlock>
    <BlockName> = "N30"
    <Mu_x> = 1.05
    <Mu_y> = 1.05
    <H_c> = 836420
    <H_cAngle> = 0
    <J_re> = 0
    <J_im> = 0
    <Sigma> = 0.66700000000000004
    <d_lam> = 0
    <Phi_h> = 0
    <Phi_hx> = 0
    <Phi_hy> = 0
    <LamType> = 0
    <LamFill> = 1
    <NStrands> = 0
    <WireD> = 0
    <BHPoints> = 0
  <EndBlock>
  <BeginBlock>
    <BlockName> = "u1"
    <Mu_x> = 2.4089242666740582
    <Mu_y> = 2.4089242666740582
    <H_c> = 0
    <H_cAngle> = 0
    <J_re> = 0
    <J_im> = 0
    <Sigma> = 0
    <d_lam> = 0
    <Phi_h> = 0
    <Phi_hx> = 0
    <Phi_hy> = 0
    <LamType> = 0
    <LamFill> = 1
    <NStrands> = 0
    <WireD> = 0
    <BHPoints> = 0
  <EndBlock>
  <BeginBlock>
    <BlockName> = "u2"
    <Mu_x> = 0.14929929105743517
    <Mu_y> = 0.14929929105743517
    <H_c> = 0
    <H_cAngle> = 0
    <J_re> = 0
    <J_im> = 0
    <Sigma> = 0
    <d_lam> = 0
    <Phi_h> = 0
    <Phi_hx> = 0
    <Phi_hy> = 0
    <LamType> = 0
    <LamFill> = 1
    <NStrands> = 0
    <WireD> = 0
    <BHPoints> = 0
  <EndBlock>
  <BeginBlock>
    <BlockName> = "u3"
    <Mu_x> = 13.817592213008757
    <Mu_y> = 13.817592213008757
    <H_c> = 0
    <H_cAngle> = 0
    <J_re> = 0
    <J_im> = 0
    <Sigma> = 0
    <d_lam> = 0
    <Phi_h> = 0
    <Phi_hx> = 0
    <Phi_hy> = 0
    <LamType> = 0
    <LamFill> = 1
    <NStrands> = 0
    <WireD> = 0
    <BHPoints> = 0
  <EndBlock>
  <BeginBlock>
    <BlockName> = "u4"
    <Mu_x> = 0.058217224585269539
    <Mu_y> = 0.058217224585269539
    <H_c> = 0
    <H_cAngle> = 0
    <J_re> = 0
    <J_im> = 0
    <Sigma> = 0
    <d_lam> = 0
    <Phi_h> = 0
    <Phi_hx> = 0
    <Phi_hy> = 0
    <LamType> = 0
    <LamFill> = 1
    <NStrands> = 0
    <WireD> = 0
    <BHPoints> = 0
  <EndBlock>
  <BeginBlock>
    <BlockName> = "u5"
    <Mu_x> = 45.655954531895645
    <Mu_y> = 45.655954531895645
    <H_c> = 0
    <H_cAngle> = 0
    <J_re> = 0
    <J_im> = 0
    <Sigma> = 0
    <d_lam> = 0
    <Phi_h> = 0
    <Phi_hx> = 0
    <Phi_hy> = 0
    <LamType> = 0
    <LamFill> = 1
    <NStrands> = 0
    <WireD> = 0
    <BHPoints> = 0
  <EndBlock>
  <BeginBlock>
    <BlockName> = "u6"
    <Mu_x> = 0.033867295231772787
    <Mu_y> = 0.033867295231772787
    <H_c> = 0
    <H_cAngle> = 0
    <J_re> = 0
    <J_im> = 0
    <Sigma> = 0
    <d_lam> = 0
    <Phi_h> = 0
    <Phi_hx> = 0
    <Phi_hy> = 0
    <LamType> = 0
    <LamFill> = 1
    <NStrands> = 0
    <WireD> = 0
    <BHPoints> = 0
  <EndBlock>
  <BeginBlock>
    <BlockName> = "u7"
    <Mu_x> = 429.04642800993452
    <Mu_y> = 429.04642800993452
    <H_c> = 0
    <H_cAngle> = 0
    <J_re> = 0
    <J_im> = 0
    <Sigma> = 0
    <d_lam> = 0
    <Phi_h> = 0
    <Phi_hx> = 0
    <Phi_hy> = 0
    <LamType> = 0
    <LamFill> = 1
    <NStrands> = 0
    <WireD> = 0
    <BHPoints> = 0
  <EndBlock>
[CircuitProps]  = 1
  <BeginCircuit>
    <CircuitName> = "Coil"
    <TotalAmps_re> = 500
    <TotalAmps_im> = 0
    <CircuitType> = 1
  <EndCircuit>
[NumPoints] = 25
0	1	0	0
0	2.7999999999999998	0	0
1.6000000000000001	2.7999999999999998	0	0
1.6000000000000001	1	0	0
1.7	0	0	0
1.7	1.8	0	0
1.8	1.8	0	0
1.8	0	0	0
0	-2.6293350000000002	0	0
0	5.389335	0	0
0	-2.26485	0	0
0	5.0248499999999998	0	0
0	-2.3169192857142855	0	0
0	5.0769192857142853	0	0
0	-2.368988571428571	0	0
0	5.1289885714285708	0	0
0	-2.4210578571428574	0	0
0	5.1810578571428572	0	0
0	-2.4731271428571429	0	0
0	5.2331271428571426	0	0
0	-2.5251964285714283	0	0
0	5.2851964285714281	0	0
0	-2.5772657142857138	0	0
0	5.3372657142857136	0	0
2	1.2	0	0
[NumSegments] = 24
1	2	-1	0	0	0
2	3	-1	0	0	0
3	0	-1	0	0	0
0	1	-1	0	0	0
5	6	-1	0	0	0
6	7	-1	0	0	0
7	4	-1	0	0	0
5	4	-1	0	0	0
8	22	-1	0	0	0
1	11	-1	0	0	0
10	0	-1	0	0	0
11	13	-1	0	0	0
12	10	-1	0	0	0
13	15	-1	0	0	0
14	12	-1	0	0	0
15	17	-1	0	0	0
16	14	-1	0	0	0
17	19	-1	0	0	0
18	16	-1	0	0	0
19	21	-1	0	0	0
20	18	-1	0	0	0
21	23	-1	0	0	0
22	20	-1	0	0	0
23	9	-1	0	0	0
[NumArcSegments] = 8
10	11	180	1	0	0	0	1
12	13	180	1	0	0	0	1
14	15	180	1	0	0	0	1
16	17	180	1	0	0	0	1
18	19	180	1	0	0	0	1
20	21	180	1	0	0	0	1
22	23	180	1	0	0	0	1
8	9	180	1	2	0	0	1
[NumHoles] = 0
[NumBlockLabels] = 10
0.68000000000000005	1.9100000000000001	11	0.050580417650868646	0	90	0	1	0
1.7200000000000002	1.23	3	0.050580400000000005	1	0	0	-1000	0
1.3400000000000001	3.7599999999999998	2	0.050580417650868646	0	0	0	1	0
3.600349623772555	2.0961540670590599	12	0.050580417650868646	0	0	0	1	0
3.4395609350896295	2.8047127879228091	13	0.050580417650868646	0	0	0	1	0
3.1388170884152511	3.4772905268151217	14	0.050580417650868646	0	0	0	1	0
2.7061630589781771	4.086163058978177	15	0.050580417650868646	0	0	0	1	0
2.1551468172100221	4.6054051460267065	16	0.050580417650868646	0	0	0	1	0
1.5044169998345751	5.0119839244652731	17	0.050580417650868646	0	0	0	1	0
0.77710334936195813	5.2867623577106446	18	0.050580417650868646	0	0	0	1	0
